<routes>
    <vType id="fcd" accel="0.8" decel="4.5" sigma="0.5" length="5" minGap="2.5" maxSpeed="20" guiShape="passenger"/>
    <vType id="mv" accel="0.8" decel="4.5" sigma="0.5" length="5" minGap="2.5" maxSpeed="20" guiShape="passenger"/>
    <route id="n3" edges="4i 1o" />
    <route id="n2" edges="4i 3o" />
    <route id="n1" edges="4i 2o" />
    <route id="e3" edges="2i 4o" />        
    <route id="e2" edges="2i 1o" />
    <route id="e1" edges="2i 3o" />
    <route id="s3" edges="3i 2o" />        
    <route id="s2" edges="3i 4o" />
    <route id="s1" edges="3i 1o" />
    <route id="w3" edges="1i 3o" />        
    <route id="w2" edges="1i 2o" />
    <route id="w1" edges="1i 4o" />
    <vehicle id="w3_1" type="mv" route="w3" depart="2" departspeed="15"/>
    <vehicle id="w2_1" type="mv" route="w2" depart="3" departspeed="15"/>
    <vehicle id="s2_1" type="mv" route="s2" depart="4" departspeed="15"/>
    <vehicle id="e2_1" type="mv" route="e2" depart="9" departspeed="15"/>
    <vehicle id="e1_1" type="mv" route="e1" depart="9" departspeed="15"/>
    <vehicle id="n2_1" type="mv" route="n2" depart="10" departspeed="15"/>
    <vehicle id="s1_1" type="mv" route="s1" depart="10" departspeed="15"/>
    <vehicle id="s2_2" type="mv" route="s2" depart="11" departspeed="15"/>
    <vehicle id="n2_2" type="mv" route="n2" depart="12" departspeed="15"/>
    <vehicle id="n1_1" type="mv" route="n1" depart="13" departspeed="15"/>
    <vehicle id="s1_2" type="mv" route="s1" depart="13" departspeed="15"/>
    <vehicle id="w1_1" type="mv" route="w1" depart="14" departspeed="15"/>
    <vehicle id="w1_2" type="mv" route="w1" depart="15" departspeed="15"/>
    <vehicle id="n3_1" type="mv" route="n3" depart="17" departspeed="15"/>
    <vehicle id="s1_3" type="fcd" route="s1" depart="19" departspeed="15"/>
    <vehicle id="n2_3" type="mv" route="n2" depart="20" departspeed="15"/>
    <vehicle id="s3_1" type="mv" route="s3" depart="20" departspeed="15"/>
    <vehicle id="n1_2" type="mv" route="n1" depart="21" departspeed="15"/>
    <vehicle id="n2_4" type="mv" route="n2" depart="22" departspeed="15"/>
    <vehicle id="s2_3" type="mv" route="s2" depart="22" departspeed="15"/>
    <vehicle id="e2_2" type="fcd" route="e2" depart="24" departspeed="15"/>
    <vehicle id="w2_2" type="mv" route="w2" depart="25" departspeed="15"/>
    <vehicle id="s2_4" type="mv" route="s2" depart="28" departspeed="15"/>
    <vehicle id="n2_5" type="mv" route="n2" depart="29" departspeed="15"/>
    <vehicle id="e2_3" type="fcd" route="e2" depart="29" departspeed="15"/>
    <vehicle id="e1_2" type="mv" route="e1" depart="31" departspeed="15"/>
    <vehicle id="s2_5" type="mv" route="s2" depart="32" departspeed="15"/>
    <vehicle id="w1_3" type="mv" route="w1" depart="32" departspeed="15"/>
    <vehicle id="e1_3" type="mv" route="e1" depart="33" departspeed="15"/>
    <vehicle id="w1_4" type="mv" route="w1" depart="33" departspeed="15"/>
    <vehicle id="w2_3" type="fcd" route="w2" depart="36" departspeed="15"/>
    <vehicle id="w2_4" type="mv" route="w2" depart="38" departspeed="15"/>
    <vehicle id="e1_4" type="mv" route="e1" depart="38" departspeed="15"/>
    <vehicle id="w3_2" type="mv" route="w3" depart="38" departspeed="15"/>
    <vehicle id="n2_6" type="mv" route="n2" depart="39" departspeed="15"/>
    <vehicle id="s2_6" type="mv" route="s2" depart="39" departspeed="15"/>
    <vehicle id="n3_2" type="mv" route="n3" depart="39" departspeed="15"/>
    <vehicle id="e3_1" type="mv" route="e3" depart="39" departspeed="15"/>
    <vehicle id="n2_7" type="mv" route="n2" depart="42" departspeed="15"/>
    <vehicle id="e2_4" type="fcd" route="e2" depart="42" departspeed="15"/>
    <vehicle id="s2_7" type="mv" route="s2" depart="42" departspeed="15"/>
    <vehicle id="n2_8" type="mv" route="n2" depart="43" departspeed="15"/>
    <vehicle id="e2_5" type="mv" route="e2" depart="45" departspeed="15"/>
    <vehicle id="w2_5" type="mv" route="w2" depart="45" departspeed="15"/>
    <vehicle id="s1_4" type="mv" route="s1" depart="46" departspeed="15"/>
    <vehicle id="n1_3" type="mv" route="n1" depart="47" departspeed="15"/>
    <vehicle id="s2_8" type="mv" route="s2" depart="50" departspeed="15"/>
    <vehicle id="s1_5" type="mv" route="s1" depart="50" departspeed="15"/>
    <vehicle id="n3_3" type="mv" route="n3" depart="50" departspeed="15"/>
    <vehicle id="s2_9" type="fcd" route="s2" depart="51" departspeed="15"/>
    <vehicle id="e2_6" type="mv" route="e2" depart="54" departspeed="15"/>
    <vehicle id="n2_9" type="mv" route="n2" depart="56" departspeed="15"/>
    <vehicle id="w2_6" type="fcd" route="w2" depart="57" departspeed="15"/>
    <vehicle id="n1_4" type="mv" route="n1" depart="58" departspeed="15"/>
    <vehicle id="e2_7" type="fcd" route="e2" depart="59" departspeed="15"/>
    <vehicle id="n2_10" type="mv" route="n2" depart="64" departspeed="15"/>
    <vehicle id="w3_3" type="mv" route="w3" depart="65" departspeed="15"/>
    <vehicle id="e2_8" type="fcd" route="e2" depart="67" departspeed="15"/>
    <vehicle id="w2_7" type="mv" route="w2" depart="68" departspeed="15"/>
    <vehicle id="n1_5" type="fcd" route="n1" depart="68" departspeed="15"/>
    <vehicle id="s2_10" type="mv" route="s2" depart="70" departspeed="15"/>
    <vehicle id="e1_5" type="mv" route="e1" depart="70" departspeed="15"/>
    <vehicle id="s2_11" type="mv" route="s2" depart="71" departspeed="15"/>
    <vehicle id="e1_6" type="mv" route="e1" depart="72" departspeed="15"/>
    <vehicle id="s1_6" type="fcd" route="s1" depart="72" departspeed="15"/>
    <vehicle id="n1_6" type="mv" route="n1" depart="74" departspeed="15"/>
    <vehicle id="e1_7" type="mv" route="e1" depart="74" departspeed="15"/>
    <vehicle id="n1_7" type="mv" route="n1" depart="76" departspeed="15"/>
    <vehicle id="e2_9" type="mv" route="e2" depart="77" departspeed="15"/>
    <vehicle id="s2_12" type="mv" route="s2" depart="77" departspeed="15"/>
    <vehicle id="n2_11" type="mv" route="n2" depart="81" departspeed="15"/>
    <vehicle id="n2_12" type="mv" route="n2" depart="82" departspeed="15"/>
    <vehicle id="e1_8" type="fcd" route="e1" depart="83" departspeed="15"/>
    <vehicle id="e2_10" type="mv" route="e2" depart="84" departspeed="15"/>
    <vehicle id="s1_7" type="mv" route="s1" depart="84" departspeed="15"/>
    <vehicle id="w3_4" type="mv" route="w3" depart="84" departspeed="15"/>
    <vehicle id="s2_13" type="mv" route="s2" depart="85" departspeed="15"/>
    <vehicle id="s2_14" type="mv" route="s2" depart="86" departspeed="15"/>
    <vehicle id="w1_5" type="mv" route="w1" depart="86" departspeed="15"/>
    <vehicle id="w2_8" type="mv" route="w2" depart="87" departspeed="15"/>
    <vehicle id="w2_9" type="mv" route="w2" depart="88" departspeed="15"/>
    <vehicle id="e1_9" type="mv" route="e1" depart="88" departspeed="15"/>
    <vehicle id="w1_6" type="mv" route="w1" depart="90" departspeed="15"/>
    <vehicle id="n3_4" type="mv" route="n3" depart="90" departspeed="15"/>
    <vehicle id="s2_15" type="mv" route="s2" depart="91" departspeed="15"/>
    <vehicle id="w2_10" type="mv" route="w2" depart="92" departspeed="15"/>
    <vehicle id="n2_13" type="mv" route="n2" depart="93" departspeed="15"/>
    <vehicle id="n1_8" type="mv" route="n1" depart="94" departspeed="15"/>
    <vehicle id="w1_7" type="mv" route="w1" depart="94" departspeed="15"/>
    <vehicle id="n3_5" type="mv" route="n3" depart="96" departspeed="15"/>
    <vehicle id="e3_2" type="mv" route="e3" depart="96" departspeed="15"/>
    <vehicle id="n2_14" type="mv" route="n2" depart="97" departspeed="15"/>
    <vehicle id="s2_16" type="mv" route="s2" depart="97" departspeed="15"/>
    <vehicle id="n3_6" type="mv" route="n3" depart="97" departspeed="15"/>
    <vehicle id="w2_11" type="mv" route="w2" depart="98" departspeed="15"/>
    <vehicle id="s1_8" type="mv" route="s1" depart="99" departspeed="15"/>
    <vehicle id="w2_12" type="mv" route="w2" depart="100" departspeed="15"/>
    <vehicle id="n1_9" type="mv" route="n1" depart="100" departspeed="15"/>
    <vehicle id="n3_7" type="mv" route="n3" depart="106" departspeed="15"/>
    <vehicle id="s3_2" type="mv" route="s3" depart="107" departspeed="15"/>
    <vehicle id="s3_3" type="mv" route="s3" depart="109" departspeed="15"/>
    <vehicle id="n2_15" type="mv" route="n2" depart="113" departspeed="15"/>
    <vehicle id="s3_4" type="mv" route="s3" depart="113" departspeed="15"/>
    <vehicle id="e2_11" type="fcd" route="e2" depart="119" departspeed="15"/>
    <vehicle id="s3_5" type="mv" route="s3" depart="119" departspeed="15"/>
    <vehicle id="n1_10" type="mv" route="n1" depart="120" departspeed="15"/>
    <vehicle id="n1_11" type="mv" route="n1" depart="124" departspeed="15"/>
    <vehicle id="e1_10" type="mv" route="e1" depart="124" departspeed="15"/>
    <vehicle id="n2_16" type="mv" route="n2" depart="126" departspeed="15"/>
    <vehicle id="w1_8" type="mv" route="w1" depart="128" departspeed="15"/>
    <vehicle id="e2_12" type="mv" route="e2" depart="131" departspeed="15"/>
    <vehicle id="w1_9" type="mv" route="w1" depart="131" departspeed="15"/>
    <vehicle id="e2_13" type="mv" route="e2" depart="132" departspeed="15"/>
    <vehicle id="w2_13" type="mv" route="w2" depart="132" departspeed="15"/>
    <vehicle id="s3_6" type="mv" route="s3" depart="132" departspeed="15"/>
    <vehicle id="w2_14" type="mv" route="w2" depart="134" departspeed="15"/>
    <vehicle id="w1_10" type="mv" route="w1" depart="134" departspeed="15"/>
    <vehicle id="s2_17" type="mv" route="s2" depart="135" departspeed="15"/>
    <vehicle id="s2_18" type="mv" route="s2" depart="136" departspeed="15"/>
    <vehicle id="s2_19" type="mv" route="s2" depart="139" departspeed="15"/>
    <vehicle id="s1_9" type="mv" route="s1" depart="139" departspeed="15"/>
    <vehicle id="n2_17" type="mv" route="n2" depart="141" departspeed="15"/>
    <vehicle id="e3_3" type="mv" route="e3" depart="143" departspeed="15"/>
    <vehicle id="w2_15" type="mv" route="w2" depart="145" departspeed="15"/>
    <vehicle id="s1_10" type="mv" route="s1" depart="147" departspeed="15"/>
    <vehicle id="n2_18" type="mv" route="n2" depart="149" departspeed="15"/>
    <vehicle id="w1_11" type="mv" route="w1" depart="149" departspeed="15"/>
    <vehicle id="e2_14" type="mv" route="e2" depart="153" departspeed="15"/>
    <vehicle id="e3_4" type="mv" route="e3" depart="153" departspeed="15"/>
    <vehicle id="n1_12" type="mv" route="n1" depart="154" departspeed="15"/>
    <vehicle id="e1_11" type="mv" route="e1" depart="154" departspeed="15"/>
    <vehicle id="s1_11" type="mv" route="s1" depart="155" departspeed="15"/>
    <vehicle id="s3_7" type="mv" route="s3" depart="156" departspeed="15"/>
    <vehicle id="e3_5" type="mv" route="e3" depart="160" departspeed="15"/>
    <vehicle id="n2_19" type="mv" route="n2" depart="162" departspeed="15"/>
    <vehicle id="e3_6" type="mv" route="e3" depart="163" departspeed="15"/>
    <vehicle id="n2_20" type="fcd" route="n2" depart="164" departspeed="15"/>
    <vehicle id="n2_21" type="mv" route="n2" depart="165" departspeed="15"/>
    <vehicle id="w1_12" type="mv" route="w1" depart="169" departspeed="15"/>
    <vehicle id="n1_13" type="mv" route="n1" depart="170" departspeed="15"/>
    <vehicle id="w2_16" type="mv" route="w2" depart="175" departspeed="15"/>
    <vehicle id="e2_15" type="mv" route="e2" depart="176" departspeed="15"/>
    <vehicle id="w3_5" type="mv" route="w3" depart="177" departspeed="15"/>
    <vehicle id="n1_14" type="mv" route="n1" depart="180" departspeed="15"/>
    <vehicle id="w2_17" type="mv" route="w2" depart="181" departspeed="15"/>
    <vehicle id="s1_12" type="mv" route="s1" depart="181" departspeed="15"/>
    <vehicle id="e2_16" type="mv" route="e2" depart="183" departspeed="15"/>
    <vehicle id="s2_20" type="mv" route="s2" depart="184" departspeed="15"/>
    <vehicle id="e2_17" type="mv" route="e2" depart="185" departspeed="15"/>
    <vehicle id="w3_6" type="mv" route="w3" depart="187" departspeed="15"/>
    <vehicle id="w1_13" type="mv" route="w1" depart="188" departspeed="15"/>
    <vehicle id="s2_21" type="mv" route="s2" depart="190" departspeed="15"/>
    <vehicle id="s1_13" type="mv" route="s1" depart="191" departspeed="15"/>
    <vehicle id="s1_14" type="mv" route="s1" depart="193" departspeed="15"/>
    <vehicle id="w3_7" type="mv" route="w3" depart="194" departspeed="15"/>
    <vehicle id="s3_8" type="mv" route="s3" depart="196" departspeed="15"/>
    <vehicle id="w2_18" type="mv" route="w2" depart="199" departspeed="15"/>
    <vehicle id="w3_8" type="mv" route="w3" depart="199" departspeed="15"/>
    <vehicle id="e3_7" type="mv" route="e3" depart="200" departspeed="15"/>
    <vehicle id="e2_18" type="mv" route="e2" depart="201" departspeed="15"/>
    <vehicle id="w3_9" type="mv" route="w3" depart="203" departspeed="15"/>
    <vehicle id="w1_14" type="mv" route="w1" depart="206" departspeed="15"/>
    <vehicle id="w3_10" type="mv" route="w3" depart="208" departspeed="15"/>
    <vehicle id="w2_19" type="mv" route="w2" depart="209" departspeed="15"/>
    <vehicle id="w3_11" type="mv" route="w3" depart="209" departspeed="15"/>
    <vehicle id="w2_20" type="mv" route="w2" depart="210" departspeed="15"/>
    <vehicle id="n2_22" type="fcd" route="n2" depart="211" departspeed="15"/>
    <vehicle id="n1_15" type="mv" route="n1" depart="211" departspeed="15"/>
    <vehicle id="n2_23" type="mv" route="n2" depart="212" departspeed="15"/>
    <vehicle id="n1_16" type="mv" route="n1" depart="214" departspeed="15"/>
    <vehicle id="s2_22" type="fcd" route="s2" depart="215" departspeed="15"/>
    <vehicle id="n1_17" type="mv" route="n1" depart="215" departspeed="15"/>
    <vehicle id="s2_23" type="mv" route="s2" depart="216" departspeed="15"/>
    <vehicle id="s3_9" type="mv" route="s3" depart="216" departspeed="15"/>
    <vehicle id="e2_19" type="mv" route="e2" depart="217" departspeed="15"/>
    <vehicle id="s2_24" type="fcd" route="s2" depart="218" departspeed="15"/>
    <vehicle id="w2_21" type="mv" route="w2" depart="218" departspeed="15"/>
    <vehicle id="n2_24" type="mv" route="n2" depart="219" departspeed="15"/>
    <vehicle id="w2_22" type="mv" route="w2" depart="220" departspeed="15"/>
    <vehicle id="n1_18" type="mv" route="n1" depart="220" departspeed="15"/>
    <vehicle id="w3_12" type="mv" route="w3" depart="221" departspeed="15"/>
    <vehicle id="s1_15" type="mv" route="s1" depart="224" departspeed="15"/>
    <vehicle id="e2_20" type="mv" route="e2" depart="225" departspeed="15"/>
    <vehicle id="e1_12" type="mv" route="e1" depart="225" departspeed="15"/>
    <vehicle id="w3_13" type="mv" route="w3" depart="226" departspeed="15"/>
    <vehicle id="e1_13" type="mv" route="e1" depart="228" departspeed="15"/>
    <vehicle id="n1_19" type="mv" route="n1" depart="229" departspeed="15"/>
    <vehicle id="w1_15" type="mv" route="w1" depart="230" departspeed="15"/>
    <vehicle id="w3_14" type="mv" route="w3" depart="231" departspeed="15"/>
    <vehicle id="w3_15" type="mv" route="w3" depart="232" departspeed="15"/>
    <vehicle id="s3_10" type="mv" route="s3" depart="233" departspeed="15"/>
    <vehicle id="n2_25" type="fcd" route="n2" depart="234" departspeed="15"/>
    <vehicle id="w2_23" type="mv" route="w2" depart="236" departspeed="15"/>
    <vehicle id="n2_26" type="mv" route="n2" depart="239" departspeed="15"/>
    <vehicle id="n2_27" type="mv" route="n2" depart="249" departspeed="15"/>
    <vehicle id="s2_25" type="mv" route="s2" depart="249" departspeed="15"/>
    <vehicle id="w2_24" type="mv" route="w2" depart="249" departspeed="15"/>
    <vehicle id="w2_25" type="fcd" route="w2" depart="255" departspeed="15"/>
    <vehicle id="e2_21" type="mv" route="e2" depart="258" departspeed="15"/>
    <vehicle id="n1_20" type="mv" route="n1" depart="259" departspeed="15"/>
    <vehicle id="s1_16" type="mv" route="s1" depart="260" departspeed="15"/>
    <vehicle id="e1_14" type="mv" route="e1" depart="261" departspeed="15"/>
    <vehicle id="e2_22" type="mv" route="e2" depart="264" departspeed="15"/>
    <vehicle id="n1_21" type="mv" route="n1" depart="266" departspeed="15"/>
    <vehicle id="w2_26" type="fcd" route="w2" depart="268" departspeed="15"/>
    <vehicle id="n3_8" type="mv" route="n3" depart="269" departspeed="15"/>
    <vehicle id="n3_9" type="mv" route="n3" depart="270" departspeed="15"/>
    <vehicle id="n1_22" type="fcd" route="n1" depart="271" departspeed="15"/>
    <vehicle id="w1_16" type="mv" route="w1" depart="273" departspeed="15"/>
    <vehicle id="s2_26" type="mv" route="s2" depart="274" departspeed="15"/>
    <vehicle id="s2_27" type="mv" route="s2" depart="276" departspeed="15"/>
    <vehicle id="n1_23" type="mv" route="n1" depart="279" departspeed="15"/>
    <vehicle id="e1_15" type="mv" route="e1" depart="279" departspeed="15"/>
    <vehicle id="w2_27" type="mv" route="w2" depart="281" departspeed="15"/>
    <vehicle id="e2_23" type="mv" route="e2" depart="282" departspeed="15"/>
    <vehicle id="w1_17" type="mv" route="w1" depart="282" departspeed="15"/>
    <vehicle id="n1_24" type="mv" route="n1" depart="285" departspeed="15"/>
    <vehicle id="w1_18" type="mv" route="w1" depart="286" departspeed="15"/>
    <vehicle id="e3_8" type="mv" route="e3" depart="288" departspeed="15"/>
    <vehicle id="e2_24" type="mv" route="e2" depart="289" departspeed="15"/>
    <vehicle id="w2_28" type="mv" route="w2" depart="289" departspeed="15"/>
    <vehicle id="e1_16" type="mv" route="e1" depart="290" departspeed="15"/>
    <vehicle id="s3_11" type="mv" route="s3" depart="290" departspeed="15"/>
    <vehicle id="e1_17" type="mv" route="e1" depart="292" departspeed="15"/>
    <vehicle id="n1_25" type="mv" route="n1" depart="293" departspeed="15"/>
    <vehicle id="w1_19" type="mv" route="w1" depart="296" departspeed="15"/>
    <vehicle id="s1_17" type="mv" route="s1" depart="301" departspeed="15"/>
    <vehicle id="s2_28" type="mv" route="s2" depart="303" departspeed="15"/>
    <vehicle id="n1_26" type="mv" route="n1" depart="304" departspeed="15"/>
    <vehicle id="n3_10" type="mv" route="n3" depart="304" departspeed="15"/>
    <vehicle id="w3_16" type="mv" route="w3" depart="305" departspeed="15"/>
    <vehicle id="s1_18" type="mv" route="s1" depart="306" departspeed="15"/>
    <vehicle id="e2_25" type="mv" route="e2" depart="307" departspeed="15"/>
    <vehicle id="n2_28" type="mv" route="n2" depart="308" departspeed="15"/>
    <vehicle id="n2_29" type="mv" route="n2" depart="310" departspeed="15"/>
    <vehicle id="n2_30" type="mv" route="n2" depart="311" departspeed="15"/>
    <vehicle id="n1_27" type="mv" route="n1" depart="313" departspeed="15"/>
    <vehicle id="w3_17" type="mv" route="w3" depart="313" departspeed="15"/>
    <vehicle id="s1_19" type="mv" route="s1" depart="314" departspeed="15"/>
    <vehicle id="e1_18" type="mv" route="e1" depart="317" departspeed="15"/>
    <vehicle id="n1_28" type="mv" route="n1" depart="321" departspeed="15"/>
    <vehicle id="s1_20" type="mv" route="s1" depart="321" departspeed="15"/>
    <vehicle id="w1_20" type="mv" route="w1" depart="322" departspeed="15"/>
    <vehicle id="s2_29" type="mv" route="s2" depart="324" departspeed="15"/>
    <vehicle id="w2_29" type="mv" route="w2" depart="325" departspeed="15"/>
    <vehicle id="w1_21" type="mv" route="w1" depart="325" departspeed="15"/>
    <vehicle id="s2_30" type="mv" route="s2" depart="326" departspeed="15"/>
    <vehicle id="w1_22" type="mv" route="w1" depart="329" departspeed="15"/>
    <vehicle id="s3_12" type="mv" route="s3" depart="329" departspeed="15"/>
    <vehicle id="n2_31" type="fcd" route="n2" depart="330" departspeed="15"/>
    <vehicle id="e1_19" type="mv" route="e1" depart="331" departspeed="15"/>
    <vehicle id="w1_23" type="mv" route="w1" depart="334" departspeed="15"/>
    <vehicle id="s2_31" type="fcd" route="s2" depart="339" departspeed="15"/>
    <vehicle id="e1_20" type="mv" route="e1" depart="340" departspeed="15"/>
    <vehicle id="e2_26" type="mv" route="e2" depart="341" departspeed="15"/>
    <vehicle id="s2_32" type="mv" route="s2" depart="341" departspeed="15"/>
    <vehicle id="e1_21" type="mv" route="e1" depart="341" departspeed="15"/>
    <vehicle id="e2_27" type="mv" route="e2" depart="343" departspeed="15"/>
    <vehicle id="s3_13" type="mv" route="s3" depart="343" departspeed="15"/>
    <vehicle id="s2_33" type="mv" route="s2" depart="347" departspeed="15"/>
    <vehicle id="e2_28" type="mv" route="e2" depart="351" departspeed="15"/>
    <vehicle id="s2_34" type="mv" route="s2" depart="353" departspeed="15"/>
    <vehicle id="e1_22" type="mv" route="e1" depart="353" departspeed="15"/>
    <vehicle id="s1_21" type="mv" route="s1" depart="354" departspeed="15"/>
    <vehicle id="n2_32" type="mv" route="n2" depart="355" departspeed="15"/>
    <vehicle id="e2_29" type="mv" route="e2" depart="358" departspeed="15"/>
    <vehicle id="w2_30" type="mv" route="w2" depart="359" departspeed="15"/>
    <vehicle id="n2_33" type="mv" route="n2" depart="360" departspeed="15"/>
    <vehicle id="e1_23" type="mv" route="e1" depart="360" departspeed="15"/>
    <vehicle id="w2_31" type="mv" route="w2" depart="361" departspeed="15"/>
    <vehicle id="n2_34" type="mv" route="n2" depart="362" departspeed="15"/>
    <vehicle id="w2_32" type="mv" route="w2" depart="362" departspeed="15"/>
    <vehicle id="n1_29" type="fcd" route="n1" depart="362" departspeed="15"/>
    <vehicle id="e3_9" type="mv" route="e3" depart="362" departspeed="15"/>
    <vehicle id="n2_35" type="mv" route="n2" depart="363" departspeed="15"/>
    <vehicle id="e2_30" type="mv" route="e2" depart="364" departspeed="15"/>
    <vehicle id="n2_36" type="mv" route="n2" depart="365" departspeed="15"/>
    <vehicle id="w1_24" type="mv" route="w1" depart="365" departspeed="15"/>
    <vehicle id="w2_33" type="mv" route="w2" depart="366" departspeed="15"/>
    <vehicle id="w2_34" type="mv" route="w2" depart="368" departspeed="15"/>
    <vehicle id="s2_35" type="mv" route="s2" depart="372" departspeed="15"/>
    <vehicle id="e1_24" type="mv" route="e1" depart="372" departspeed="15"/>
    <vehicle id="n2_37" type="mv" route="n2" depart="375" departspeed="15"/>
    <vehicle id="e1_25" type="mv" route="e1" depart="375" departspeed="15"/>
    <vehicle id="w1_25" type="mv" route="w1" depart="375" departspeed="15"/>
    <vehicle id="s1_22" type="fcd" route="s1" depart="376" departspeed="15"/>
    <vehicle id="n1_30" type="mv" route="n1" depart="378" departspeed="15"/>
    <vehicle id="e1_26" type="mv" route="e1" depart="379" departspeed="15"/>
    <vehicle id="s3_14" type="mv" route="s3" depart="379" departspeed="15"/>
    <vehicle id="w3_18" type="mv" route="w3" depart="382" departspeed="15"/>
    <vehicle id="s2_36" type="mv" route="s2" depart="383" departspeed="15"/>
    <vehicle id="e1_27" type="mv" route="e1" depart="385" departspeed="15"/>
    <vehicle id="s2_37" type="mv" route="s2" depart="387" departspeed="15"/>
    <vehicle id="e1_28" type="mv" route="e1" depart="387" departspeed="15"/>
    <vehicle id="s3_15" type="mv" route="s3" depart="388" departspeed="15"/>
    <vehicle id="w1_26" type="mv" route="w1" depart="393" departspeed="15"/>
    <vehicle id="w1_27" type="mv" route="w1" depart="398" departspeed="15"/>
    <vehicle id="w2_35" type="mv" route="w2" depart="401" departspeed="15"/>
    <vehicle id="n2_38" type="mv" route="n2" depart="402" departspeed="15"/>
    <vehicle id="w3_19" type="mv" route="w3" depart="402" departspeed="15"/>
    <vehicle id="s2_38" type="mv" route="s2" depart="405" departspeed="15"/>
    <vehicle id="n3_11" type="mv" route="n3" depart="405" departspeed="15"/>
    <vehicle id="w1_28" type="fcd" route="w1" depart="407" departspeed="15"/>
    <vehicle id="n2_39" type="mv" route="n2" depart="408" departspeed="15"/>
    <vehicle id="s3_16" type="fcd" route="s3" depart="408" departspeed="15"/>
    <vehicle id="n1_31" type="mv" route="n1" depart="409" departspeed="15"/>
    <vehicle id="w3_20" type="mv" route="w3" depart="409" departspeed="15"/>
    <vehicle id="w1_29" type="mv" route="w1" depart="415" departspeed="15"/>
    <vehicle id="n2_40" type="fcd" route="n2" depart="418" departspeed="15"/>
    <vehicle id="w2_36" type="fcd" route="w2" depart="418" departspeed="15"/>
    <vehicle id="e1_29" type="mv" route="e1" depart="419" departspeed="15"/>
    <vehicle id="w3_21" type="mv" route="w3" depart="419" departspeed="15"/>
    <vehicle id="w2_37" type="fcd" route="w2" depart="420" departspeed="15"/>
    <vehicle id="e2_31" type="mv" route="e2" depart="421" departspeed="15"/>
    <vehicle id="s2_39" type="mv" route="s2" depart="422" departspeed="15"/>
    <vehicle id="e2_32" type="mv" route="e2" depart="423" departspeed="15"/>
    <vehicle id="w3_22" type="fcd" route="w3" depart="424" departspeed="15"/>
    <vehicle id="n1_32" type="mv" route="n1" depart="428" departspeed="15"/>
    <vehicle id="e2_33" type="mv" route="e2" depart="429" departspeed="15"/>
    <vehicle id="s2_40" type="mv" route="s2" depart="430" departspeed="15"/>
    <vehicle id="n2_41" type="mv" route="n2" depart="434" departspeed="15"/>
    <vehicle id="e1_30" type="mv" route="e1" depart="434" departspeed="15"/>
    <vehicle id="s2_41" type="mv" route="s2" depart="437" departspeed="15"/>
    <vehicle id="w2_38" type="mv" route="w2" depart="437" departspeed="15"/>
    <vehicle id="w2_39" type="mv" route="w2" depart="440" departspeed="15"/>
    <vehicle id="e2_34" type="mv" route="e2" depart="441" departspeed="15"/>
    <vehicle id="e2_35" type="mv" route="e2" depart="442" departspeed="15"/>
    <vehicle id="n2_42" type="fcd" route="n2" depart="443" departspeed="15"/>
    <vehicle id="e2_36" type="mv" route="e2" depart="443" departspeed="15"/>
    <vehicle id="s2_42" type="mv" route="s2" depart="446" departspeed="15"/>
    <vehicle id="w1_30" type="mv" route="w1" depart="447" departspeed="15"/>
    <vehicle id="e2_37" type="mv" route="e2" depart="449" departspeed="15"/>
    <vehicle id="s2_43" type="mv" route="s2" depart="450" departspeed="15"/>
    <vehicle id="s3_17" type="mv" route="s3" depart="451" departspeed="15"/>
    <vehicle id="n2_43" type="mv" route="n2" depart="452" departspeed="15"/>
    <vehicle id="s3_18" type="mv" route="s3" depart="452" departspeed="15"/>
    <vehicle id="n2_44" type="mv" route="n2" depart="455" departspeed="15"/>
    <vehicle id="w2_40" type="mv" route="w2" depart="456" departspeed="15"/>
    <vehicle id="w3_23" type="mv" route="w3" depart="456" departspeed="15"/>
    <vehicle id="n2_45" type="mv" route="n2" depart="457" departspeed="15"/>
    <vehicle id="n2_46" type="fcd" route="n2" depart="458" departspeed="15"/>
    <vehicle id="s3_19" type="mv" route="s3" depart="459" departspeed="15"/>
    <vehicle id="w3_24" type="mv" route="w3" depart="459" departspeed="15"/>
    <vehicle id="w2_41" type="mv" route="w2" depart="460" departspeed="15"/>
    <vehicle id="n2_47" type="fcd" route="n2" depart="461" departspeed="15"/>
    <vehicle id="e2_38" type="mv" route="e2" depart="463" departspeed="15"/>
    <vehicle id="n1_33" type="mv" route="n1" depart="463" departspeed="15"/>
    <vehicle id="w1_31" type="mv" route="w1" depart="463" departspeed="15"/>
    <vehicle id="n2_48" type="mv" route="n2" depart="467" departspeed="15"/>
    <vehicle id="n2_49" type="mv" route="n2" depart="471" departspeed="15"/>
    <vehicle id="n3_12" type="mv" route="n3" depart="471" departspeed="15"/>
    <vehicle id="e3_10" type="mv" route="e3" depart="471" departspeed="15"/>
    <vehicle id="w2_42" type="mv" route="w2" depart="472" departspeed="15"/>
    <vehicle id="s1_23" type="mv" route="s1" depart="475" departspeed="15"/>
    <vehicle id="w2_43" type="mv" route="w2" depart="476" departspeed="15"/>
    <vehicle id="s2_44" type="fcd" route="s2" depart="477" departspeed="15"/>
    <vehicle id="e1_31" type="mv" route="e1" depart="477" departspeed="15"/>
    <vehicle id="n1_34" type="mv" route="n1" depart="479" departspeed="15"/>
    <vehicle id="e1_32" type="fcd" route="e1" depart="480" departspeed="15"/>
    <vehicle id="n2_50" type="mv" route="n2" depart="482" departspeed="15"/>
    <vehicle id="e2_39" type="mv" route="e2" depart="486" departspeed="15"/>
    <vehicle id="n1_35" type="mv" route="n1" depart="486" departspeed="15"/>
    <vehicle id="n2_51" type="mv" route="n2" depart="489" departspeed="15"/>
    <vehicle id="s2_45" type="mv" route="s2" depart="489" departspeed="15"/>
    <vehicle id="n2_52" type="mv" route="n2" depart="494" departspeed="15"/>
    <vehicle id="w2_44" type="mv" route="w2" depart="494" departspeed="15"/>
    <vehicle id="s1_24" type="mv" route="s1" depart="496" departspeed="15"/>
    <vehicle id="n2_53" type="fcd" route="n2" depart="497" departspeed="15"/>
    <vehicle id="s1_25" type="fcd" route="s1" depart="498" departspeed="15"/>
    <vehicle id="e3_11" type="mv" route="e3" depart="498" departspeed="15"/>
    <vehicle id="n1_36" type="mv" route="n1" depart="500" departspeed="15"/>
    <vehicle id="s1_26" type="fcd" route="s1" depart="500" departspeed="15"/>
    <vehicle id="e2_40" type="mv" route="e2" depart="502" departspeed="15"/>
    <vehicle id="w1_32" type="mv" route="w1" depart="503" departspeed="15"/>
    <vehicle id="w3_25" type="mv" route="w3" depart="506" departspeed="15"/>
    <vehicle id="n2_54" type="mv" route="n2" depart="507" departspeed="15"/>
    <vehicle id="e1_33" type="mv" route="e1" depart="507" departspeed="15"/>
    <vehicle id="s3_20" type="mv" route="s3" depart="507" departspeed="15"/>
    <vehicle id="n2_55" type="mv" route="n2" depart="508" departspeed="15"/>
    <vehicle id="n2_56" type="mv" route="n2" depart="509" departspeed="15"/>
    <vehicle id="n2_57" type="mv" route="n2" depart="511" departspeed="15"/>
    <vehicle id="e3_12" type="mv" route="e3" depart="513" departspeed="15"/>